
---------- Begin Simulation Statistics ----------
sim_seconds                                  7.786775                       # Number of seconds simulated
sim_ticks                                7786774848500                       # Number of ticks simulated
final_tick                               7786774848500                       # Number of ticks from beginning of simulation (restored from checkpoints and never reset)
sim_freq                                 1000000000000                       # Frequency of simulated ticks
host_inst_rate                                2501851                       # Simulator instruction rate (inst/s)
host_op_rate                                  3239647                       # Simulator op (including micro ops) rate (op/s)
host_tick_rate                             1948134936                       # Simulator tick rate (ticks/s)
host_mem_usage                                8648988                       # Number of bytes of host memory used
host_seconds                                  3997.04                       # Real time elapsed on the host
sim_insts                                 10000000001                       # Number of instructions simulated
sim_ops                                   12949002420                       # Number of ops (including micro ops) simulated
system.mem_ctrls.bytes_read::cpu.inst     50498189116                       # Number of bytes read from this memory
system.mem_ctrls.bytes_read::cpu.data     22320204839                       # Number of bytes read from this memory
system.mem_ctrls.bytes_read::total        72818393955                       # Number of bytes read from this memory
system.mem_ctrls.bytes_inst_read::cpu.inst  50498189116                       # Number of instructions bytes read from this memory
system.mem_ctrls.bytes_inst_read::total   50498189116                       # Number of instructions bytes read from this memory
system.mem_ctrls.bytes_written::cpu.data   6312768009                       # Number of bytes written to this memory
system.mem_ctrls.bytes_written::total      6312768009                       # Number of bytes written to this memory
system.mem_ctrls.num_reads::cpu.inst      12624547279                       # Number of read requests responded to by this memory
system.mem_ctrls.num_reads::cpu.data       4515173523                       # Number of read requests responded to by this memory
system.mem_ctrls.num_reads::total         17139720802                       # Number of read requests responded to by this memory
system.mem_ctrls.num_writes::cpu.data      1385803008                       # Number of write requests responded to by this memory
system.mem_ctrls.num_writes::total         1385803008                       # Number of write requests responded to by this memory
system.mem_ctrls.bw_read::cpu.inst         6485122544                       # Total read bandwidth from this memory (bytes/s)
system.mem_ctrls.bw_read::cpu.data         2866424839                       # Total read bandwidth from this memory (bytes/s)
system.mem_ctrls.bw_read::total            9351547383                       # Total read bandwidth from this memory (bytes/s)
system.mem_ctrls.bw_inst_read::cpu.inst    6485122544                       # Instruction read bandwidth from this memory (bytes/s)
system.mem_ctrls.bw_inst_read::total       6485122544                       # Instruction read bandwidth from this memory (bytes/s)
system.mem_ctrls.bw_write::cpu.data         810703806                       # Write bandwidth from this memory (bytes/s)
system.mem_ctrls.bw_write::total            810703806                       # Write bandwidth from this memory (bytes/s)
system.mem_ctrls.bw_total::cpu.inst        6485122544                       # Total bandwidth to/from this memory (bytes/s)
system.mem_ctrls.bw_total::cpu.data        3677128645                       # Total bandwidth to/from this memory (bytes/s)
system.mem_ctrls.bw_total::total          10162251189                       # Total bandwidth to/from this memory (bytes/s)
system.membus.throughput                            0                       # Throughput (bytes/s)
system.membus.data_through_bus                      0                       # Total data (bytes)
system.membus.snoop_data_through_bus                0                       # Total snoop data (bytes)
system.cpu.dtb.inst_hits                            0                       # ITB inst hits
system.cpu.dtb.inst_misses                          0                       # ITB inst misses
system.cpu.dtb.read_hits                            0                       # DTB read hits
system.cpu.dtb.read_misses                          0                       # DTB read misses
system.cpu.dtb.write_hits                           0                       # DTB write hits
system.cpu.dtb.write_misses                         0                       # DTB write misses
system.cpu.dtb.flush_tlb                            0                       # Number of times complete TLB was flushed
system.cpu.dtb.flush_tlb_mva                        0                       # Number of times TLB was flushed by MVA
system.cpu.dtb.flush_tlb_mva_asid                   0                       # Number of times TLB was flushed by MVA & ASID
system.cpu.dtb.flush_tlb_asid                       0                       # Number of times TLB was flushed by ASID
system.cpu.dtb.flush_entries                        0                       # Number of entries that have been flushed from TLB
system.cpu.dtb.align_faults                         0                       # Number of TLB faults due to alignment restrictions
system.cpu.dtb.prefetch_faults                      0                       # Number of TLB faults due to prefetch
system.cpu.dtb.domain_faults                        0                       # Number of TLB faults due to domain restrictions
system.cpu.dtb.perms_faults                         0                       # Number of TLB faults due to permissions restrictions
system.cpu.dtb.read_accesses                        0                       # DTB read accesses
system.cpu.dtb.write_accesses                       0                       # DTB write accesses
system.cpu.dtb.inst_accesses                        0                       # ITB inst accesses
system.cpu.dtb.hits                                 0                       # DTB hits
system.cpu.dtb.misses                               0                       # DTB misses
system.cpu.dtb.accesses                             0                       # DTB accesses
system.cpu.itb.inst_hits                            0                       # ITB inst hits
system.cpu.itb.inst_misses                          0                       # ITB inst misses
system.cpu.itb.read_hits                            0                       # DTB read hits
system.cpu.itb.read_misses                          0                       # DTB read misses
system.cpu.itb.write_hits                           0                       # DTB write hits
system.cpu.itb.write_misses                         0                       # DTB write misses
system.cpu.itb.flush_tlb                            0                       # Number of times complete TLB was flushed
system.cpu.itb.flush_tlb_mva                        0                       # Number of times TLB was flushed by MVA
system.cpu.itb.flush_tlb_mva_asid                   0                       # Number of times TLB was flushed by MVA & ASID
system.cpu.itb.flush_tlb_asid                       0                       # Number of times TLB was flushed by ASID
system.cpu.itb.flush_entries                        0                       # Number of entries that have been flushed from TLB
system.cpu.itb.align_faults                         0                       # Number of TLB faults due to alignment restrictions
system.cpu.itb.prefetch_faults                      0                       # Number of TLB faults due to prefetch
system.cpu.itb.domain_faults                        0                       # Number of TLB faults due to domain restrictions
system.cpu.itb.perms_faults                         0                       # Number of TLB faults due to permissions restrictions
system.cpu.itb.read_accesses                        0                       # DTB read accesses
system.cpu.itb.write_accesses                       0                       # DTB write accesses
system.cpu.itb.inst_accesses                        0                       # ITB inst accesses
system.cpu.itb.hits                                 0                       # DTB hits
system.cpu.itb.misses                               0                       # DTB misses
system.cpu.itb.accesses                             0                       # DTB accesses
system.cpu.workload.num_syscalls                   99                       # Number of system calls
system.cpu.numCycles                      15573549698                       # number of cpu cycles simulated
system.cpu.numWorkItemsStarted                      0                       # number of work items this cpu started
system.cpu.numWorkItemsCompleted                    0                       # number of work items this cpu completed
system.cpu.committedInsts                 10000000001                       # Number of instructions committed
system.cpu.committedOps                   12949002420                       # Number of ops (including micro ops) committed
system.cpu.num_int_alu_accesses           10288411086                       # Number of integer alu accesses
system.cpu.num_fp_alu_accesses             5770234726                       # Number of float alu accesses
system.cpu.num_func_calls                   180569525                       # number of times a function call or return occured
system.cpu.num_conditional_control_insts    481232601                       # number of instructions that are conditional controls
system.cpu.num_int_insts                  10288411086                       # number of integer instructions
system.cpu.num_fp_insts                    5770234726                       # number of float instructions
system.cpu.num_int_register_reads         72479307816                       # number of times the integer registers were read
system.cpu.num_int_register_writes         9884453102                       # number of times the integer registers were written
system.cpu.num_fp_register_reads          10220374361                       # number of times the floating registers were read
system.cpu.num_fp_register_writes          7946393119                       # number of times the floating registers were written
system.cpu.num_mem_refs                    5902322304                       # number of memory refs
system.cpu.num_load_insts                  4515604076                       # Number of load instructions
system.cpu.num_store_insts                 1386718228                       # Number of store instructions
system.cpu.num_idle_cycles                          0                       # Number of idle cycles
system.cpu.num_busy_cycles                15573549698                       # Number of busy cycles
system.cpu.not_idle_fraction                        1                       # Percentage of non-idle cycles
system.cpu.idle_fraction                            0                       # Percentage of idle cycles

---------- End Simulation Statistics   ----------
